Circuit: * Z:\run\media\aymerick\688229EC3111185C\SpaceTech\EXP_SCHUMANN\Simulations_LTSPICE\SpiceSchematic\simulation_ADA.asc

ERROR: Node U3:7 is floating and connected to current source G:U3:B2

Direct Newton iteration failed to find .op point.  (Use ".option noopiter" to skip.)
Starting Gmin stepping
Gmin = 10
Gmin = 1.07374
vernier = 0.5
vernier = 0.25
vernier = 0.125
vernier = 0.0625
Gmin = 1.15289
vernier = 0.03125
Gmin = 1.0585
vernier = 0.015625
vernier = 0.0078125
Gmin = 1.04413
vernier = 0.0104167
vernier = 0.00520833
vernier = 0.00694444
Gmin = 1.03153
vernier = 0.00347222
vernier = 0.00462963
vernier = 0.00231481
Gmin = 1.02587
vernier = 0.00308642
vernier = 0.00154321
Gmin = 1.02094
vernier = 0.00205761
vernier = 0.00102881
Gmin = 1.01727
vernier = 0.00137174
Gmin = 1.01422
vernier = 0.00068587
vernier = 0.000914493
Gmin = 1.01266
vernier = 0.00121932
vernier = 0.000609662
Gmin = 1.01119
vernier = 0.000812882
vernier = 0.000406441
vernier = 0.000541921
Gmin = 1.01013
vernier = 0.000722562
vernier = 0.000541921
Gmin = 1.00904
vernier = 0.000406441
vernier = 0.000541921
vernier = 0.000406441
Gmin = 1.00839
vernier = 0.000541921
vernier = 0.000406441
Gmin = 1.00757
Gmin = 0
Gmin stepping failed

Starting source stepping with srcstepmethod=0
Source Step = 3.0303%
Source Step = 9.84848%
Source Step = 17.4242%
Source Step = 25%
Source Step = 32.5758%
Source Step = 40.1515%
vernier = 0.375
Source Step = 50.7576%
Source Step = 62.1212%
Source Step = 73.4848%
Source Step = 84.8485%
Source Step = 96.2121%
vernier = 0.5625
Source stepping succeeded in finding the operating point.


Date: Mon Apr 18 23:34:53 2022
Total elapsed time: 19.160 seconds.

tnom = 27
temp = 27
method = modified trap
totiter = 447841
traniter = 437071
tranpoints = 218468
accept = 218460
rejected = 8
matrix size = 116
fillins = 195
solver = Normal
Thread vector: 15.3/8.7[4] 4.2/4.0[1] 3.9/2.9[4] 1.5/2.3[1]  2592/500
Matrix Compiler1: 15.25 KB object code size  3.9/2.6/[2.0]
Matrix Compiler2: 13.50 KB object code size  2.4/2.9/[1.9]

