Circuit: * Z:\run\media\aymerick\688229EC3111185C\SpaceTech\EXP_SCHUMANN\Simulations_LTSPICE\SpiceSchematic\simulation_ADA.asc

Direct Newton iteration failed to find .op point.  (Use ".option noopiter" to skip.)
Starting Gmin stepping
Gmin = 10
Gmin = 1.07374
vernier = 0.5
vernier = 0.25
vernier = 0.125
vernier = 0.0625
Gmin = 1.08884
vernier = 0.03125
vernier = 0.015625
Gmin = 1.03922
vernier = 0.0078125
vernier = 0.0104167
vernier = 0.00520833
Gmin = 1.02512
vernier = 0.00260417
Gmin = 1.01715
vernier = 0.00347222
vernier = 0.00173611
vernier = 0.00231481
Gmin = 1.01282
vernier = 0.00115741
vernier = 0.00154321
Gmin = 1.01018
vernier = 0.000771604
vernier = 0.00102881
Gmin = 1.00856
vernier = 0.000514403
vernier = 0.00068587
Gmin = 1.0074
vernier = 0.000514403
vernier = 0.00068587
Gmin = 1.00623
vernier = 0.000514402
Gmin = 0
Gmin stepping failed

Starting source stepping with srcstepmethod=0
Source Step = 3.0303%
Source Step = 9.84848%
Source Step = 17.4242%
Source Step = 25%
Source Step = 32.5758%
Source Step = 40.1515%
vernier = 0.375
Source Step = 50.7576%
Source Step = 62.1212%
Source Step = 73.4848%
Source Step = 84.8485%
Source Step = 96.2121%
vernier = 0.5625
Source stepping succeeded in finding the operating point.

Heightened Def Con from 0.242502 to 0.242502
Heightened Def Con from 0.242502 to 0.242502
Heightened Def Con from 0.681129 to 0.681129

Date: Mon Apr 04 23:19:06 2022
Total elapsed time: 32.411 seconds.

tnom = 27
temp = 27
method = modified trap
totiter = 1738551
traniter = 1731148
tranpoints = 766842
accept = 648958
rejected = 117887
matrix size = 71
fillins = 133
solver = Normal
Thread vector: 8.0/6.6[3] 3.4/3.7[1] 3.3/3.5[1] 1.4/2.1[1]  2592/500
Matrix Compiler1: 8.76 KB object code size  2.8/1.9/[1.7]
Matrix Compiler2: 8.56 KB object code size  1.8/2.2/[1.9]

