Circuit: * ADA4530 Macro-model

Fatal Error: No analysis request found.
