Circuit: * Z:\run\media\aymerick\688229EC3111185C\SpaceTech\EXP_SCHUMANN\Simulations_LTSPICE\simulation_ADA.asc

Direct Newton iteration failed to find .op point.  (Use ".option noopiter" to skip.)
Starting Gmin stepping
Gmin = 10
Gmin = 1.07374
vernier = 0.5
vernier = 0.25
vernier = 0.125
vernier = 0.0625
Gmin = 1.08884
vernier = 0.03125
vernier = 0.015625
Gmin = 1.03922
vernier = 0.0078125
vernier = 0.0104167
vernier = 0.00520833
Gmin = 1.02512
vernier = 0.00260417
Gmin = 1.01715
vernier = 0.00347222
vernier = 0.00173611
vernier = 0.00231481
Gmin = 1.01282
vernier = 0.00115741
vernier = 0.00154321
Gmin = 1.01018
vernier = 0.000771604
vernier = 0.00102881
Gmin = 1.00856
vernier = 0.000514403
vernier = 0.00068587
Gmin = 1.0074
vernier = 0.000514403
vernier = 0.00068587
Gmin = 1.00623
vernier = 0.000514402
Gmin = 0
Gmin stepping failed

Starting source stepping with srcstepmethod=0
Source Step = 3.0303%
Source Step = 9.84848%
Source Step = 17.4242%
Source Step = 25%
Source Step = 32.5758%
Source Step = 40.1515%
vernier = 0.375
Source Step = 50.7576%
Source Step = 62.1212%
Source Step = 73.4848%
Source Step = 84.8485%
Source Step = 96.2121%
vernier = 0.5625
Source stepping succeeded in finding the operating point.


Date: Sun Apr 03 17:43:17 2022
Total elapsed time: 12.022 seconds.

tnom = 27
temp = 27
method = modified trap
totiter = 207466
traniter = 200036
tranpoints = 100019
accept = 100019
rejected = 0
matrix size = 120
fillins = 173
solver = Normal
Thread vector: 18.3/12.9[4] 6.4/6.1[1] 6.8/4.8[4] 1.8/2.5[1]  2592/500
Matrix Compiler1: 13.61 KB object code size  5.5/3.1/[2.5]
Matrix Compiler2: 13.13 KB object code size  3.4/4.6/[2.5]

