Circuit: * Z:\run\media\aymerick\688229EC3111185C\SpaceTech\EXP_SCHUMANN\Simulations_LTSPICE\simulation_ADA.asc

Direct Newton iteration failed to find .op point.  (Use ".option noopiter" to skip.)
Starting Gmin stepping
Gmin = 10
Gmin = 1.07374
vernier = 0.5
vernier = 0.25
vernier = 0.125
vernier = 0.0625
Gmin = 1.08884
vernier = 0.03125
vernier = 0.015625
Gmin = 1.03922
vernier = 0.0078125
vernier = 0.0104167
vernier = 0.00520833
Gmin = 1.02512
vernier = 0.00260417
Gmin = 1.01715
vernier = 0.00347222
vernier = 0.00173611
vernier = 0.00231481
Gmin = 1.01282
vernier = 0.00115741
vernier = 0.00154321
Gmin = 1.01018
vernier = 0.000771604
vernier = 0.00102881
Gmin = 1.00856
vernier = 0.000514403
vernier = 0.00068587
Gmin = 1.0074
vernier = 0.000514403
vernier = 0.00068587
Gmin = 1.00623
vernier = 0.000514402
Gmin = 0
Gmin stepping failed

Starting source stepping with srcstepmethod=0
Source Step = 3.0303%
Source Step = 9.84848%
Source Step = 17.4242%
Source Step = 25%
Source Step = 32.5758%
Source Step = 40.1515%
vernier = 0.375
Source Step = 42.0928%
Source Step = 42.803%
Source Step = 43.5133%
Source Step = 44.2235%
Source Step = 44.9337%
vernier = 0.0351563
Source Step = 45.8215%
Source Step = 46.8868%
Source Step = 47.9522%
Source Step = 49.0175%
Source Step = 50.0829%
vernier = 0.0527344
Source Step = 51.3613%
Source Step = 52.9593%
Source Step = 54.5573%
Source Step = 56.1553%
Source Step = 57.7533%
vernier = 0.0791016
Source Step = 59.591%
Source Step = 61.988%
Source Step = 64.3851%
Source Step = 66.7821%
Source Step = 69.1791%
vernier = 0.118652
Source Step = 71.8158%
Source Step = 75.4113%
Source Step = 79.0069%
Source Step = 82.6024%
Source Step = 86.1979%
vernier = 0.177979
Source Step = 89.9732%
Source Step = 95.3665%
Source stepping succeeded in finding the operating point.


Date: Sun Apr 03 17:05:37 2022
Total elapsed time: 0.933 seconds.

tnom = 27
temp = 27
method = modified trap
totiter = 12310
traniter = 3806
tranpoints = 1904
accept = 1465
rejected = 439
matrix size = 120
fillins = 171
solver = Normal
Thread vector: 28.5/17.3[4] 8.0/5.5[4] 7.6/5.2[4] 3.0/3.8[1]  2592/500
Matrix Compiler1: 12.74 KB object code size  5.4/5.1/[2.4]
Matrix Compiler2: off  [3.3]/4.8/3.5

